test/data/SIP.raw
@!IC, SBASE,REV,XFRRAT,NXFRAT,BASFRQ
0,   100.00, 34,     1,     1, 50.00     / PSS(R)E-34.9    SAT, NOV 01 2025  15:36
PICO HÁBIL DIURNO DEL VERANO 25/26 DEMANDA SADI 30960 MW

GENERAL, THRSHZ=0.0001, PQBRAK=0.7, BLOWUP=5.0
GAUSS, ITMX=100, ACCP=1.6, ACCQ=1.6, ACCM=1.0, TOL=0.0001
NEWTON, ITMXN=30, ACCN=1.0, TOLN=0.1, VCTOLQ=0.1, VCTOLV=0.00001, DVLIM=0.99, NDVFCT=0.99
ADJUST, ADJTHR=0.005, ACCTAP=1.0, TAPLIM=0.05, SWVBND=100.0, MXTPSS=99, MXSWIM=10
TYSL, ITMXTY=20, ACCTY=1.0, TOLTY=0.00001
SOLVER, FNSL, ACTAPS=1, AREAIN=0, PHSHFT=0, DCTAPS=1, SWSHNT=1, FLATST=0, VARLIM=0, NONDIV=0
RATING, 1, "RATE1 ", "RATING SET 1                    "
RATING, 2, "RATE2 ", "RATING SET 2                    "
RATING, 3, "RATE3 ", "RATING SET 3                    "
RATING, 4, "RATE4 ", "RATING SET 4                    "
RATING, 5, "RATE5 ", "RATING SET 5                    "
RATING, 6, "RATE6 ", "RATING SET 6                    "
RATING, 7, "RATE7 ", "RATING SET 7                    "
RATING, 8, "RATE8 ", "RATING SET 8                    "
RATING, 9, "RATE9 ", "RATING SET 9                    "
RATING,10, "RATE10", "RATING SET 10                   "
RATING,11, "RATE11", "RATING SET 11                   "
RATING,12, "RATE12", "RATING SET 12                   "
0 / END OF SYSTEM-WIDE DATA, BEGIN BUS DATA
@!   I,'NAME        ', BASKV, IDE,AREA,ZONE,OWNER, VM,        VA,    NVHI,   NVLO,   EVHI,   EVLO
    10,'NPMADRYN    ', 500.0000,1,  21,  51,  10,1.09223,  -9.3646,1.10000,0.90000,1.10000,0.90000
    11,'NPMD.CHL    ', 500.0000,3,  21,  51,  10,1.00000,   0.0000,1.10000,0.90000,1.10000,0.90000
    12,'SCN_500     ', 500.0000,1,  21,  52,  10,1.03570,  -6.5219,1.10000,0.90000,1.10000,0.90000
    15,'RSCRUZ      ', 500.0000,1,  21,  52,  10,1.01986,  -7.3196,1.10000,0.90000,1.10000,0.90000
    19,'ESPERANZ    ', 500.0000,1,  21,  52,  10,1.01358,  -7.6442,1.10000,0.90000,1.10000,0.90000
   100,'FUTAL330    ', 330.0000,1,  21,  51,  10,1.04673,  15.2153,1.10000,0.90000,1.10000,0.90000
   102,'FUTAHI01    ',  13.8000,2,  21,  51,   6,1.04000,  19.2383,1.10000,0.90000,1.10000,0.90000
   104,'FUTAHI02    ',  13.8000,2,  21,  51,   6,1.04000,  19.2383,1.10000,0.90000,1.10000,0.90000
   106,'FUTAHI03    ',  13.8000,2,  21,  51,   6,1.04000,  19.2383,1.10000,0.90000,1.10000,0.90000
   108,'FUTAHI04    ',  13.8000,2,  21,  51,   6,1.04000,  19.2383,1.10000,0.90000,1.10000,0.90000
   115,'R.TURBIO    ', 220.0000,1,  21,  52,   1,1.01462,  -9.1188,1.10000,0.90000,1.10000,0.90000
   117,'ESPERANZ    ', 220.0000,1,  21,  52,   1,1.00655,  -8.6385,1.10000,0.90000,1.10000,0.90000
   118,'RGALLEGO    ', 220.0000,1,  21,  52,   1,1.00941,  -9.6484,1.10000,0.90000,1.10000,0.90000
   200,'PMADR330    ', 330.0000,1,  21,  51,   1,1.01017,  -4.1772,1.10000,0.90000,1.10000,0.90000
   210,'APPA330A    ', 330.0000,1,  16,  53,   2,1.00952,  -4.1901,1.10000,0.90000,1.10000,0.90000
   211,'APPA330B    ', 330.0000,1,  16,  53,   2,1.00952,  -4.1773,1.10000,0.90000,1.10000,0.90000
   213,'APPA330C    ', 330.0000,1,  16,  53,   2,1.00952,  -4.1773,1.10000,0.90000,1.10000,0.90000
   220,'PMADRYN1    ', 132.0000,1,  21,  51,   1,1.03324,  -4.6357,1.10000,0.90000,1.10000,0.90000
   221,'PMADRYN2    ', 132.0000,1,  21,  51,  10,1.04212,  -6.9989,1.10000,0.90000,1.10000,0.90000
   223,'LB ESTE     ', 132.0000,1,  21,  51,  10,1.03761,  -4.4416,1.10000,0.90000,1.10000,0.90000
   224,'NPMAD330    ', 330.0000,1,  21,  51,  10,1.01028,  -4.2066,1.10000,0.90000,1.10000,0.90000
   226,'LB OESTE    ', 132.0000,1,  21,  51,  10,1.04850,  -5.0420,1.10000,0.90000,1.10000,0.90000
   230,'DGPAL132    ', 132.0000,1,  21,  51,  10,1.02924,  -4.7427,1.10000,0.90000,1.10000,0.90000
   240,'TRELW132    ', 132.0000,1,  21,  51,  10,1.01302,  -3.2783,1.10000,0.90000,1.10000,0.90000
   242,'TREW13.2    ',  13.2000,2,  21,  51,   1,0.98106,  -6.9440,1.10000,0.90000,1.10000,0.90000
   243,'RAWSON      ', 132.0000,1,  21,  51,   1,1.01773,  -2.5679,1.10000,0.90000,1.10000,0.90000
   244,'TRELEW33    ',  33.0000,1,  21,  51,   1,0.98083,  -6.2509,1.10000,0.90000,1.10000,0.90000
   246,'PE_PMADR    ', 132.0000,1,  21,  51,  10,1.03826,  -6.1653,1.10000,0.90000,1.10000,0.90000
   250,'AMEGH132    ', 132.0000,1,  21,  51,   1,1.03627,  -0.4622,1.10000,0.90000,1.10000,0.90000
   251,'AMEGHI01    ',  13.2000,2,  21,  51,   6,1.04000,   1.3989,1.10000,0.90000,1.10000,0.90000
   258,'PER-132     ', 132.0000,1,  21,  51,   1,1.02058,  -2.1122,1.10000,0.90000,1.10000,0.90000
   264,'FUTAL132    ', 132.0000,1,  21,  51,  10,1.02655,  14.0416,1.10000,0.90000,1.10000,0.90000
   266,'ESQUE132    ', 132.0000,1,  21,  51,  10,1.01991,  13.6077,1.10000,0.90000,1.10000,0.90000
   271,'ELCOIHUE    ', 132.0000,1,  21,  51,   1,0.99999,  13.2243,1.10000,0.90000,1.10000,0.90000
   272,'CHUBUNOR2   ', 132.0000,1,  21,  51,  10,1.03876,  -6.2578,1.10000,0.90000,1.10000,0.90000
   273,'PMADRYN2    ', 132.0000,1,  21,  51,  10,1.04212,  -6.9989,1.10000,0.90000,1.10000,0.90000
   275,'LB          ', 132.0000,1,  21,  51,  10,1.03401,  -4.1747,1.10000,0.90000,1.10000,0.90000
   280,'GOLONDRI    ',  13.2000,1,  21,  51,  10,0.94091,  12.4387,1.10000,0.90000,1.10000,0.90000
   281,'LIMRN-CH    ',  13.2000,1,  21,  51,  10,0.88227,  12.2866,1.10000,0.90000,1.10000,0.90000
   282,'ELBOLSON    ',  13.2000,1,  21,  51,   1,0.83854,  12.1593,1.10000,0.90000,1.10000,0.90000
   300,'SGRAN132    ', 132.0000,1,   7,  26,   1,0.99061, -10.4802,1.10000,0.90000,1.10000,0.90000
   310,'PCOLO132    ', 132.0000,1,   7,  26,  10,0.99041, -10.5336,1.10000,0.90000,1.10000,0.90000
   311,'MALASPINA   ', 132.0000,1,  21,  51,  10,1.02531,   1.4173,1.10000,0.90000,1.10000,0.90000
   315,'RSCRUZ      ', 132.0000,1,  21,  52,   1,1.00452,  -7.5523,1.10000,0.90000,1.10000,0.90000
   320,'SANOE132    ', 132.0000,1,   7,  26,   1,0.95010, -15.3401,1.10000,0.90000,1.10000,0.90000
   322,'SANES132    ', 132.0000,1,   7,  26,   1,0.94590, -15.8905,1.10000,0.90000,1.10000,0.90000
   400,'C.RIV.A1    ', 132.0000,1,  21,  51,  10,1.00000,  -2.0870,1.10000,0.90000,1.10000,0.90000
   401,'C.RIV.A     ', 132.0000,1,  21,  51,  10,0.99994,  -2.0918,1.10000,0.90000,1.10000,0.90000
   402,'GARAYALDE   ', 132.0000,1,  21,  51,  10,1.03523,   1.3074,1.10000,0.90000,1.10000,0.90000
   403,'HERCULES    ', 132.0000,1,  21,  52,  10,1.01698,  -0.6682,1.10000,0.90000,1.10000,0.90000
   404,'ESCALANT    ', 132.0000,1,  21,  51,  10,0.99119,  -1.5394,1.10000,0.90000,1.10000,0.90000
   405,'PE_MBEHR    ', 132.0000,1,  21,  51,  10,1.00184,  -0.0737,1.10000,0.90000,1.10000,0.90000
   406,'CRIVTG26    ',  13.2000,2,  21,  51,   4,0.99994,  -2.0918,1.10000,0.90000,1.10000,0.90000
   407,'GARA33_01   ',  33.0000,1,  21,  51,  10,1.02348,   3.5879,1.10000,0.90000,1.10000,0.90000
   408,'C.RIV.A1    ',  10.4000,1,  21,  51,   1,0.99099,  -3.6828,1.10000,0.90000,1.10000,0.90000
   409,'CRIVTG21    ',  10.4000,2,  21,  51,   4,0.99099,  -3.6828,1.10000,0.90000,1.10000,0.90000
   410,'C.RIV.A1    ',  66.0000,2,  21,  51,   1,0.99458,  -1.3316,1.10000,0.90000,1.10000,0.90000
   411,'ESCALANT2   ', 132.0000,1,  21,  51,   1,0.99119,  -1.5394,1.10000,0.90000,1.10000,0.90000
   412,'CT_MBEHR2   ', 132.0000,1,  21,  51,  10,1.00176,  -0.0344,1.10000,0.90000,1.10000,0.90000
   413,'BICE33_02   ',  33.0000,1,  21,  52,  10,1.01150,   7.8599,1.10000,0.90000,1.10000,0.90000
   415,'GARA13_01   ',  13.2000,1,  21,  51,  10,1.02315,   3.7553,1.10000,0.90000,1.10000,0.90000
   416,'SEBER1      ',  66.0000,1,  21,  51,   1,1.00606,   0.4992,1.10000,0.90000,1.10000,0.90000
   417,'SEBER1_35   ',  35.0000,1,  21,  51,  10,0.98908,   3.4617,1.10000,0.90000,1.10000,0.90000
   418,'SEBER2      ',  35.0000,1,  21,  51,   1,0.99315,   4.0209,1.10000,0.90000,1.10000,0.90000
   420,'C.RIV.A1    ',  33.0000,2,  21,  51,   1,0.99020,  -3.8846,1.10000,0.90000,1.10000,0.90000
   422,'CRIVTG23    ',  13.8000,2,  21,  51,   4,0.98719,  -4.4605,1.10000,0.90000,1.10000,0.90000
   423,'MB_ALL_35   ',  35.0000,1,  21,  51,  10,0.99315,   4.0209,1.10000,0.90000,1.10000,0.90000
   424,'MB_JEN_35   ',  35.0000,1,  21,  51,  10,0.99315,   4.0209,1.10000,0.90000,1.10000,0.90000
   437,'CRIVTG78    ',  13.8000,2,  21,  51,   8,0.99994,  -2.0918,1.10000,0.90000,1.10000,0.90000
   438,'CRIVTV25    ',  13.8000,2,  21,  51,   8,0.99994,  -2.0918,1.10000,0.90000,1.10000,0.90000
   440,'VHERM132    ', 132.0000,2,  21,  51,   1,0.96780,  -3.0488,1.10000,0.90000,1.10000,0.90000
   441,'SAN JOSE    ', 132.0000,1,  21,  52,   1,0.99202,  -2.6232,1.10000,0.90000,1.10000,0.90000
   442,'CNEGR132    ', 132.0000,2,  21,  51,   1,0.95741,  -3.5717,1.10000,0.90000,1.10000,0.90000
   444,'PAMCA132    ', 132.0000,2,  21,  51,   1,0.98199,  -2.2483,1.10000,0.90000,1.10000,0.90000
   445,'TORDI132    ', 132.0000,2,  21,  51,   1,0.98100,  -2.3027,1.10000,0.90000,1.10000,0.90000
   446,'LPER1132    ', 132.0000,1,  21,  52,   1,1.03460,   1.9220,1.10000,0.90000,1.10000,0.90000
   448,'LASHE132    ', 132.0000,2,  21,  52,   1,1.00662,  -0.6901,1.10000,0.90000,1.10000,0.90000
   449,'DIADEMA     ', 132.0000,1,  21,  51,   1,0.99661,  -1.5400,1.10000,0.90000,1.10000,0.90000
   450,'BSM132R     ', 132.0000,2,  21,  51,   1,0.99823,  -2.0918,1.10000,0.90000,1.10000,0.90000
   451,'DIAD33_01   ',  33.0000,1,  21,  51,  10,0.97628,   1.1989,1.10000,0.90000,1.10000,0.90000
   453,'DIADEO01    ',   0.4000,2,  21,  51,  11,1.03000,   2.4253,1.10000,0.90000,1.10000,0.90000
   454,'C.OLIVIA    ', 132.0000,1,  21,  52,   1,1.03178,  -1.1470,1.10000,0.90000,1.10000,0.90000
   455,'AIKE        ', 132.0000,1,  21,  52,   1,0.99520,  -2.2129,1.10000,0.90000,1.10000,0.90000
   456,'ABASOLO     ', 132.0000,1,  21,  51,   1,1.00029,  -1.9617,1.10000,0.90000,1.10000,0.90000
   457,'OROPLATA    ', 132.0000,1,  21,  52,   1,0.98332,  -3.4829,1.10000,0.90000,1.10000,0.90000
   458,'C.LEON      ', 132.0000,1,  21,  52,  10,1.03508,  -0.9443,1.10000,0.90000,1.10000,0.90000
   459,'PT1-132R    ', 132.0000,2,  21,  52,   1,1.02431,  -3.5519,1.10000,0.90000,1.10000,0.90000
   460,'PT1-132M    ', 132.0000,1,  21,  52,   1,1.02431,  -3.5519,1.10000,0.90000,1.10000,0.90000
   461,'SCN_132     ', 132.0000,1,  21,  52,  10,1.02526,  -3.6379,1.10000,0.90000,1.10000,0.90000
   462,'PTRUN235    ',  35.0000,1,  21,  52,   1,1.00633,  -3.2744,1.10000,0.90000,1.10000,0.90000
   463,'PTRUN35R    ',  35.0000,2,  21,  52,   1,1.00633,  -3.2744,1.10000,0.90000,1.10000,0.90000
   464,'PTR1TG24    ',  13.8000,2,  21,  52,   4,0.96716,  -3.2667,1.10000,0.90000,1.10000,0.90000
   466,'PTR1TG25    ',  10.5000,2,  21,  52,   4,0.96682,  -3.2611,1.10000,0.90000,1.10000,0.90000
   467,'PCR         ', 132.0000,1,  21,  52,   1,1.02421,  -3.4414,1.10000,0.90000,1.10000,0.90000
   468,'PTR1TG23    ',  10.5000,2,  21,  52,   4,1.00633,  -3.2744,1.10000,0.90000,1.10000,0.90000
   470,'PT2--132    ', 132.0000,1,  21,  52,  10,1.02441,  -3.5542,1.10000,0.90000,1.10000,0.90000
   472,'PT2-6.9     ',  35.0000,1,  21,  52,   1,1.02441,  -3.5542,1.10000,0.90000,1.10000,0.90000
   474,'ELCORDON    ',  35.0000,1,  21,  52,   1,1.02568,  -0.0789,1.10000,0.90000,1.10000,0.90000
   477,'MESESPI     ',  35.0000,1,  21,  52,   1,1.03170,   2.4705,1.10000,0.90000,1.10000,0.90000
   478,'MESEDI01    ',   0.4000,2,  21,  52,   4,1.00000,   8.6510,1.10000,0.90000,1.10000,0.90000
   479,'SCN_TER1    ',  33.0000,1,  21,  52,  10,1.02787,  -3.8924,1.10000,0.90000,1.10000,0.90000
   480,'PDES132M    ', 132.0000,1,  21,  52,   1,1.02749,   3.7344,1.10000,0.90000,1.10000,0.90000
   483,'PS.A.BIEDMA ', 132.0000,1,  21,  52,   1,1.02957,   3.9390,1.10000,0.90000,1.10000,0.90000
   484,'SCN_TER2    ',  33.0000,1,  21,  52,  10,1.02744,  -3.8509,1.10000,0.90000,1.10000,0.90000
   490,'CTPAT132    ', 132.0000,1,  21,  51,  10,1.00263,  -1.7946,1.10000,0.90000,1.10000,0.90000
   491,'PATATG01    ',  11.5000,2,  21,  51,   8,1.03000,   1.9464,1.10000,0.90000,1.10000,0.90000
   492,'PATATG02    ',  11.5000,2,  21,  51,   8,1.00263,  -1.7946,1.10000,0.90000,1.10000,0.90000
   493,'PATATV01    ',  11.5000,2,  21,  51,   8,1.03000,  -0.5934,1.10000,0.90000,1.10000,0.90000
   494,'CHUBUNOR    ', 132.0000,1,  21,  51,  10,1.03129,  -3.8336,1.10000,0.90000,1.10000,0.90000
   495,'PEBICENT    ', 132.0000,1,  21,  52,  10,1.02847,   4.2771,1.10000,0.90000,1.10000,0.90000
   500,'HERC33_01   ',  33.0000,1,  21,  52,  10,1.00824,   1.9998,1.10000,0.90000,1.10000,0.90000
   501,'PM33_01     ',  33.0000,1,  21,  51,  10,1.00671,  -3.6610,1.10000,0.90000,1.10000,0.90000
   504,'RSCRUZ      ',  33.0000,1,  21,  52,   1,1.00437,  -7.5772,1.10000,0.90000,1.10000,0.90000
   508,'LBVI33_02   ',  33.0000,1,  21,  51,  10,1.00062,  -2.4772,1.10000,0.90000,1.10000,0.90000
   510,'PM33_02     ',  33.0000,1,  21,  51,  10,1.03293,  -4.5784,1.10000,0.90000,1.10000,0.90000
   511,'PM33_01     ',  33.0000,1,  21,  51,  10,1.03162,  -4.6611,1.10000,0.90000,1.10000,0.90000
   512,'C.LEON33_01 ',  33.0000,1,  21,  52,  10,1.02971,   1.4648,1.10000,0.90000,1.10000,0.90000
   513,'C.LEON33_02 ',  33.0000,1,  21,  52,  10,1.03296,   1.9254,1.10000,0.90000,1.10000,0.90000
   514,'CRITER10    ',  13.2000,1,  21,  51,  10,0.99374,  -1.2115,1.10000,0.90000,1.10000,0.90000
   515,'CRITER11    ',  13.2000,1,  21,  52,  10,0.99402,  -1.2511,1.10000,0.90000,1.10000,0.90000
   516,'ESQ1.TER    ',  13.2000,1,  21,  51,  10,0.99460,   9.7072,1.10000,0.90000,1.10000,0.90000
   517,'BICE33_01   ',  33.0000,1,  21,  52,  10,1.00882,   7.6706,1.10000,0.90000,1.10000,0.90000
   519,'KOST33_01   ',  33.0000,1,  21,  51,  10,0.95691,   0.3175,1.10000,0.90000,1.10000,0.90000
   520,'ESQUEL33    ',  33.0000,1,  21,  51,   1,0.99532,   9.8334,1.10000,0.90000,1.10000,0.90000
   521,'BICE33_03   ',  33.0000,1,  21,  52,  10,1.01236,   7.8726,1.10000,0.90000,1.10000,0.90000
   522,'ELCOIHUE    ',  33.0000,1,  21,  51,   1,0.94553,  11.1273,1.10000,0.90000,1.10000,0.90000
   524,'GOLONDRI    ',  33.0000,1,  21,  51,   1,0.94691,  13.1742,1.10000,0.90000,1.10000,0.90000
   526,'CHNO33_01   ',  33.0000,1,  21,  51,  10,1.01597,  -1.5921,1.10000,0.90000,1.10000,0.90000
   527,'ELBOLSON    ',  33.0000,1,  21,  51,  10,0.98016,  14.5289,1.10000,0.90000,1.10000,0.90000
   528,'R.ESCONDIDO ',  33.0000,1,  21,  51,  10,1.01187,  17.0868,1.10000,0.90000,1.10000,0.90000
   532,'LBVI33_03   ',  33.0000,1,  21,  51,  10,1.00266,  -2.3424,1.10000,0.90000,1.10000,0.90000
   533,'PEM33_01    ',  33.0000,1,  21,  51,  10,1.01387,  -3.4475,1.10000,0.90000,1.10000,0.90000
   534,'PEM33_02    ',  33.0000,1,  21,  51,  10,1.01610,  -3.0606,1.10000,0.90000,1.10000,0.90000
   535,'CTMB36_01   ',  36.7000,1,  21,  51,   1,0.98406,  -1.3051,1.10000,0.90000,1.10000,0.90000
   536,'MBE2DI01    ',  11.0000,2,  21,  51,  10,1.00000,   0.1945,1.10000,0.90000,1.10000,0.90000
   537,'COIHU6_01   ',   6.6000,1,  21,  51,  10,0.94554,  11.1276,1.10000,0.90000,1.10000,0.90000
   538,'LGO-EBL     ',  33.0000,1,  21,  51,  10,0.95190,  13.3660,1.10000,0.90000,1.10000,0.90000
   539,'LPU-EBL     ',  33.0000,1,  21,  51,  10,0.96580,  13.9214,1.10000,0.90000,1.10000,0.90000
   540,'HERC33_02   ',  33.0000,1,  21,  52,  10,1.00634,   1.8201,1.10000,0.90000,1.10000,0.90000
   541,'PEM33_03    ',  33.0000,1,  21,  51,  10,1.01971,  -1.9830,1.10000,0.90000,1.10000,0.90000
   542,'PM33_02     ',  33.0000,1,  21,  51,  10,1.04282,  -6.8691,1.10000,0.90000,1.10000,0.90000
   544,'DIAD33_02   ',  33.0000,1,  21,  51,  10,0.97628,   1.1989,1.10000,0.90000,1.10000,0.90000
   545,'ESP.TER1    ',  33.0000,1,  21,  52,   1,0.99552,  -8.7255,1.10000,0.90000,1.10000,0.90000
   546,'ESP.TER2    ',  33.0000,1,  21,  52,   1,1.06005,  -9.1238,1.10000,0.90000,1.10000,0.90000
   549,'KOST33_02   ',  33.0000,1,  21,  51,  10,0.96432,   0.2440,1.10000,0.90000,1.10000,0.90000
   550,'CHNO33_02   ',  33.0000,1,  21,  51,  10,1.01574,  -0.9962,1.10000,0.90000,1.10000,0.90000
   551,'MALAS33_01  ',  33.0000,1,  21,  51,  10,1.00691,   3.9930,1.10000,0.90000,1.10000,0.90000
   552,'MALAS33_02  ',  33.0000,1,  21,  51,  10,1.00817,   4.1658,1.10000,0.90000,1.10000,0.90000
   553,'DIAD33_03   ',  33.0000,1,  21,  51,  10,0.98517,   1.5725,1.10000,0.90000,1.10000,0.90000
   554,'SCN_TER3    ',  33.0000,1,  21,  52,  10,1.02358,  -3.4725,1.10000,0.90000,1.10000,0.90000
   556,'R.TURBIO33  ',  33.0000,1,  21,  52,   1,0.98040,  -9.6742,1.10000,0.90000,1.10000,0.90000
   557,'R.TURBIO13  ',  13.2000,1,  21,  52,  10,0.97992,  -9.7319,1.10000,0.90000,1.10000,0.90000
   558,'CHNO33_03   ',  33.0000,1,  21,  51,  10,1.02099,  -4.1394,1.10000,0.90000,1.10000,0.90000
   559,'CHNO33_04   ',  33.0000,1,  21,  51,  10,1.01920,  -3.6615,1.10000,0.90000,1.10000,0.90000
   560,'PELB33_01   ',  33.0000,1,  21,  51,  10,1.01397,  -0.0992,1.10000,0.90000,1.10000,0.90000
   561,'PELB33_02   ',  33.0000,1,  21,  51,  10,1.01648,   0.3381,1.10000,0.90000,1.10000,0.90000
   562,'PELB33_05   ',  33.0000,1,  21,  51,  10,1.01248,  -0.0846,1.10000,0.90000,1.10000,0.90000
   563,'PELB33_06   ',  33.0000,1,  21,  51,  10,1.01438,   0.1444,1.10000,0.90000,1.10000,0.90000
   564,'PELB33_03   ',  33.0000,1,  21,  51,  10,1.01189,   0.1976,1.10000,0.90000,1.10000,0.90000
   565,'PELB33_04   ',  33.0000,1,  21,  51,  10,1.01455,   0.4045,1.10000,0.90000,1.10000,0.90000
   566,'PELB33_07   ',  33.0000,1,  21,  51,  10,1.00961,  -1.3971,1.10000,0.90000,1.10000,0.90000
   567,'PELB33_08   ',  33.0000,1,  21,  51,  10,1.01325,  -0.8799,1.10000,0.90000,1.10000,0.90000
   568,'LBVI33_01   ',  33.0000,1,  21,  51,  10,1.00069,  -2.4929,1.10000,0.90000,1.10000,0.90000
   570,'PER-33      ',  33.0000,1,  21,  51,  10,0.98207,   0.8705,1.10000,0.90000,1.10000,0.90000
   571,'PER-33      ',  33.0000,1,  21,  51,  10,0.98467,   0.9968,1.10000,0.90000,1.10000,0.90000
   572,'LBVI33_04   ',  33.0000,1,  21,  51,  10,1.00221,  -2.3659,1.10000,0.90000,1.10000,0.90000
   573,'CHNO33_02   ',  33.0000,1,  21,  51,  10,1.01784,  -1.3815,1.10000,0.90000,1.10000,0.90000
   574,'CHNO33_05   ',  33.0000,1,  21,  51,  10,1.01927,  -3.4373,1.10000,0.90000,1.10000,0.90000
   575,'CHNO33_06   ',  33.0000,1,  21,  51,  10,1.02062,  -3.9028,1.10000,0.90000,1.10000,0.90000
   578,'BEHR33_1    ',  33.0000,1,  21,  51,  10,1.01063,   2.5416,1.10000,0.90000,1.10000,0.90000
   579,'FUTA33_02   ',  33.0000,1,  21,  51,  10,1.02875,  14.4549,1.10000,0.90000,1.10000,0.90000
   580,'CHNO33_03   ',  33.0000,1,  21,  51,  10,1.01638,  -1.6055,1.10000,0.90000,1.10000,0.90000
   583,'TER         ',  33.0000,1,  21,  26,  10,1.03820,  -6.8000,1.10000,0.90000,1.10000,0.90000
   601,'CHN3EO01    ',   0.7000,2,  21,  51,  11,1.00000,   1.2361,1.10000,0.90000,1.10000,0.90000
   602,'MAL1EO01    ',   0.6000,2,  21,  51,  11,1.00000,   6.0739,1.10000,0.90000,1.10000,0.90000
   604,'LEONEO01    ',   6.0000,2,  21,  52,  11,1.03000,   3.8991,1.10000,0.90000,1.10000,0.90000
   605,'LOM6EO01    ',   0.7000,2,  21,  51,  11,1.00000,   0.0584,1.10000,0.90000,1.10000,0.90000
   607,'MANBDI01    ',  10.4000,2,  21,  51,   4,1.00000,   5.7519,1.10000,0.90000,1.10000,0.90000
   608,'CHN4EO01    ',   0.7000,2,  21,  51,  11,1.00000,  -1.6844,1.10000,0.90000,1.10000,0.90000
   609,'CHN2EO01    ',   0.7000,2,  21,  51,  11,1.01638,  -1.6055,1.10000,0.90000,1.10000,0.90000
   618,'MANBDI02    ',   0.4000,2,  21,  51,   7,1.00000,   6.3345,1.10000,0.90000,1.10000,0.90000
   619,'MBE2DI02    ',  11.0000,2,  21,  51,   7,1.00000,   0.1945,1.10000,0.90000,1.10000,0.90000
   620,'RESCHI02    ',   6.3000,2,  21,  51,   6,1.00000,  20.8024,1.10000,0.90000,1.10000,0.90000
   650,'GARAEO01    ',   0.7000,2,  21,  51,  11,1.02000,   5.7186,1.10000,0.90000,1.10000,0.90000
   651,'CHNOEO01    ',   0.7000,2,  21,  51,  11,1.00000,   0.8433,1.10000,0.90000,1.10000,0.90000
   652,'LHEREO01    ',   0.6000,2,  21,  52,  11,1.00000,   3.9181,1.10000,0.90000,1.10000,0.90000
   654,'BICEEO01    ',   0.7000,2,  21,  52,  11,1.00000,  10.1547,1.10000,0.90000,1.10000,0.90000
   658,'BIC2EO01    ',   0.7000,2,  21,  52,  11,1.00000,  10.1653,1.10000,0.90000,1.10000,0.90000
   659,'DIA2EO01    ',   0.4000,2,  21,  51,  11,1.00000,   3.4251,1.10000,0.90000,1.10000,0.90000
   661,'YPFATG01    ',  11.0000,2,  21,  52,   4,1.05000,   5.7222,1.10000,0.90000,1.10000,0.90000
   662,'YPFATG02    ',  11.0000,2,  21,  52,   4,1.05000,   5.7222,1.10000,0.90000,1.10000,0.90000
   663,'RESCHI01    ',   0.4000,2,  21,  51,   6,1.00000,  19.4468,1.10000,0.90000,1.10000,0.90000
   664,'KOSTEO01    ',   0.5800,2,  21,  51,  11,0.98000,   2.2547,1.10000,0.90000,1.10000,0.90000
   675,'RAW1EO      ',   0.6900,2,  21,  51,  11,1.02652,   3.0187,1.10000,0.90000,1.10000,0.90000
   676,'RAW3EO01    ',   0.6900,2,  21,  51,  11,1.00586,   3.4731,1.10000,0.90000,1.10000,0.90000
   679,'PMA1EO01    ',   0.7000,2,  21,  51,  11,1.00000,  -0.8080,1.10000,0.90000,1.10000,0.90000
   680,'PMA2EO01    ',   0.7000,2,  21,  51,  11,1.00000,   0.2486,1.10000,0.90000,1.10000,0.90000
   682,'CHN4EO01    ',   0.7000,2,  21,  51,  11,1.00000,  -1.2406,1.10000,0.90000,1.10000,0.90000
   684,'LOM1EO01    ',   0.7000,2,  21,  51,  11,1.00000,   2.8049,1.10000,0.90000,1.10000,0.90000
   685,'LOM3EO01    ',   0.7000,2,  21,  51,  11,1.00000,   2.6163,1.10000,0.90000,1.10000,0.90000
...
0 / END OF BUS DATA, BEGIN LOAD DATA
@!   I,'ID',STAT,AREA,ZONE,      PL,        QL,        IP,        IQ,        YP,        YQ, OWNER,SCALE,INTRPT,  DGENP,     DGENQ, DGENF
   115,'1 ',   1,  21,  52,     4.702,     1.968,     0.000,     0.000,     0.000,     0.000,   1,    1,  0,     0.000,     0.000,   0
   118,'1 ',   1,  21,  52,    23.053,     4.446,     0.000,     0.000,     0.000,     0.000,   1,    1,  0,     0.000,     0.000,   0
   210,'99',   1,  16,  53,    18.704,    37.655,     0.000,     0.000,     0.000,     0.000,   2,    1,  0,     0.000,     0.000,   0
   211,'99',   1,  16,  53,     5.369,    39.556,     0.000,     0.000,     0.000,     0.000,   2,    1,  0,     0.000,     0.000,   0
   213,'99',   1,  16,  53,     5.367,    39.572,     0.000,     0.000,     0.000,     0.000,   2,    1,  0,     0.000,     0.000,   0
   230,'1 ',   1,  21,  51,    36.766,    12.876,     0.000,     0.000,     0.000,     0.000,   1,    1,  0,     0.000,     0.000,   0
   242,'1 ',   0,  21,  51,     5.458,     2.797,     0.000,     0.000,     0.000,     0.000,   1,    1,  0,     0.000,     0.000,   0
   242,'2 ',   0,  21,  51,    12.621,     5.964,     0.000,     0.000,     0.000,     0.000,   1,    1,  0,     0.000,     0.000,   0
   242,'3 ',   1,  21,  51,    13.314,     6.443,     0.000,     0.000,     0.000,     0.000,   1,    1,  0,     0.000,     0.000,   0
   243,'1 ',   1,  21,  51,    14.942,     3.334,     0.000,     0.000,     0.000,     0.000,   1,    1,  0,     0.000,     0.000,   0
   244,'1 ',   1,  21,  51,    31.380,    14.466,     0.000,     0.000,     0.000,     0.000,   1,    1,  0,     0.000,     0.000,   0
   250,'1 ',   1,  21,  51,     0.510,     0.214,     0.000,     0.000,     0.000,     0.000,   1,    1,  0,     0.000,     0.000,   0
   250,'2 ',   0,  21,  51,     0.000,     0.000,     0.000,     0.000,     0.000,     0.000,   1,    1,  0,     0.000,     0.000,   0
   282,'1 ',   1,  21,  51,     1.596,     0.768,     0.000,     0.000,     0.000,     0.000,   1,    1,  0,     0.000,     0.000,   0
   300,'1 ',   1,   7,  26,     4.882,     1.926,     0.000,     0.000,     0.000,     0.000,   1,    1,  0,     0.000,     0.000,   0
   310,'1 ',   1,   7,  26,     1.190,     0.460,     0.000,     0.000,     0.000,     0.000,   2,    0,  0,     0.000,     0.000,   0
   315,'1 ',   1,  21,  52,     1.592,     0.521,     0.000,     0.000,     0.000,     0.000,   1,    1,  0,     0.000,     0.000,   0
   315,'2 ',   1,  21,  52,     1.592,     0.521,     0.000,     0.000,     0.000,     0.000,   1,    1,  0,     0.000,     0.000,   0
   320,'1 ',   1,   7,  26,    15.935,     5.235,     0.000,     0.000,     0.000,     0.000,   1,    1,  0,     0.000,     0.000,   0
   322,'1 ',   1,   7,  26,    17.386,     3.526,     0.000,     0.000,     0.000,     0.000,   1,    1,  0,     0.000,     0.000,   0
   405,'1 ',   0,  21,  51,    33.888,    11.544,     0.000,     0.000,     0.000,     0.000,   2,    0,  0,     0.000,     0.000,   0
   408,'1 ',   0,  21,  51,     0.000,     0.000,     0.000,     0.000,     0.000,     0.000,   1,    1,  0,     0.000,     0.000,   0
   409,'1 ',   1,  21,  52,     4.994,     1.709,     0.000,     0.000,     0.000,     0.000,   1,    1,  0,     0.000,     0.000,   0
   409,'2 ',   0,  21,  52,     7.989,     2.734,     0.000,     0.000,     0.000,     0.000,   1,    1,  0,     0.000,     0.000,   0
   409,'3 ',   0,  21,  51,     2.207,     0.617,     0.000,     0.000,     0.000,     0.000,   1,    1,  0,     0.000,     0.000,   0
   410,'2 ',   0,  21,  51,    14.099,     6.455,     0.000,     0.000,     0.000,     0.000,   1,    1,  0,     0.000,     0.000,   0
   410,'3 ',   0,  21,  51,     0.134,     0.551,     0.000,     0.000,     0.000,     0.000,   1,    1,  0,     0.000,     0.000,   0
   411,'1 ',   1,  21,  51,    34.000,    22.400,     0.000,     0.000,     0.000,     0.000,   2,    0,  0,     0.000,     0.000,   0
   416,'1 ',   1,  21,  51,     0.656,     0.246,     0.000,     0.000,     0.000,     0.000,   1,    1,  0,     0.000,     0.000,   0
   418,'1 ',   1,  21,  51,    16.300,     7.000,     0.000,     0.000,     0.000,     0.000,   1,    0,  0,     0.000,     0.000,   0
   420,'1 ',   1,  21,  51,    13.598,     5.875,     0.000,     0.000,     0.000,     0.000,   1,    1,  0,     0.000,     0.000,   0
   420,'2 ',   1,  21,  51,     8.856,     3.607,     0.000,     0.000,     0.000,     0.000,   1,    1,  0,     0.000,     0.000,   0
   420,'3 ',   0,  21,  51,     4.900,     2.000,     0.000,     0.000,     0.000,     0.000,   1,    1,  0,     0.000,     0.000,   0
   422,'1 ',   1,  21,  51,    13.010,     3.544,     0.000,     0.000,     0.000,     0.000,   1,    1,  0,     0.000,     0.000,   0
   440,'1 ',   1,  21,  51,     9.816,     5.676,     0.000,     0.000,     0.000,     0.000,   1,    1,  0,     0.000,     0.000,   0
   440,'2 ',   0,  21,  51,    12.500,     4.000,     0.000,     0.000,     0.000,     0.000,   1,    1,  0,     0.000,     0.000,   0
   440,'3 ',   0,  21,  51,    14.988,     4.265,     0.000,     0.000,     0.000,     0.000,   1,    1,  0,     0.000,     0.000,   0
   441,'1 ',   1,  21,  52,     3.897,     1.685,     0.000,     0.000,     0.000,     0.000,   1,    1,  0,     0.000,     0.000,   0
   442,'1 ',   1,  21,  51,    11.304,     7.787,     0.000,     0.000,     0.000,     0.000,   1,    1,  0,     0.000,     0.000,   0
   442,'2 ',   0,  21,  51,     5.571,     2.551,     0.000,     0.000,     0.000,     0.000,   1,    1,  0,     0.000,     0.000,   0
   442,'3 ',   0,  21,  51,     2.500,     1.428,     0.000,     0.000,     0.000,     0.000,   1,    1,  0,     0.000,     0.000,   0
   444,'1 ',   1,  21,  51,    16.167,     3.652,     0.000,     0.000,     0.000,     0.000,   1,    1,  0,     0.000,     0.000,   0
   444,'2 ',   0,  21,  51,    12.166,     5.570,     0.000,     0.000,     0.000,     0.000,   1,    1,  0,     0.000,     0.000,   0
   444,'3 ',   0,  21,  51,     3.500,     0.658,     0.000,     0.000,     0.000,     0.000,   1,    1,  0,     0.000,     0.000,   0
   445,'1 ',   1,  21,  51,     5.132,     1.516,     0.000,     0.000,     0.000,     0.000,   1,    1,  0,     0.000,     0.000,   0
   445,'2 ',   0,  21,  51,     9.096,     4.165,     0.000,     0.000,     0.000,     0.000,   1,    1,  0,     0.000,     0.000,   0
   445,'3 ',   0,  21,  51,     3.500,     0.000,     0.000,     0.000,     0.000,     0.000,   1,    1,  0,     0.000,     0.000,   0
   446,'1 ',   1,  21,  52,    15.039,     8.282,     0.000,     0.000,     0.000,     0.000,   1,    1,  0,     0.000,     0.000,   0
   448,'1 ',   1,  21,  52,    26.066,    14.979,     0.000,     0.000,     0.000,     0.000,   1,    1,  0,     0.000,     0.000,   0
   448,'2 ',   0,  21,  52,    26.500,    11.661,     0.000,     0.000,     0.000,     0.000,   1,    1,  0,     0.000,     0.000,   0
   448,'3 ',   0,  21,  52,    10.299,     5.199,     0.000,     0.000,     0.000,     0.000,   1,    1,  0,     0.000,     0.000,   0
   450,'1 ',   0,  21,  51,    30.100,    15.400,     0.000,     0.000,     0.000,     0.000,   1,    1,  0,     0.000,     0.000,   0
   450,'2 ',   0,  21,  51,     0.000,     0.000,     0.000,     0.000,     0.000,     0.000,   1,    1,  0,     0.000,     0.000,   0
   450,'3 ',   0,  21,  51,     0.000,     0.000,     0.000,     0.000,     0.000,     0.000,   1,    1,  0,     0.000,     0.000,   0
   450,'4 ',   1,  21,  52,    28.230,     7.792,     0.000,     0.000,     0.000,     0.000,   1,    1,  0,     0.000,     0.000,   0
   451,'1 ',   1,  21,  51,     2.566,     0.257,     0.000,     0.000,     0.000,     0.000,   1,    1,  0,     0.000,     0.000,   0
   454,'1 ',   1,  21,  52,     9.239,     3.507,     0.000,     0.000,     0.000,     0.000,   1,    1,  0,     0.000,     0.000,   0
   456,'1 ',   1,  21,  51,    17.065,     6.951,     0.000,     0.000,     0.000,     0.000,   1,    1,  0,     0.000,     0.000,   0
   457,'1 ',   1,  21,  52,    16.500,     4.500,     0.000,     0.000,     0.000,     0.000,   2,    0,  0,     0.000,     0.000,   0
   459,'2 ',   0,  21,  52,     5.276,     1.803,     0.000,     0.000,     0.000,     0.000,   1,    1,  0,     0.000,     0.000,   0
   459,'3 ',   0,  21,  52,     7.732,     3.575,     0.000,     0.000,     0.000,     0.000,   1,    1,  0,     0.000,     0.000,   0
   460,'1 ',   1,  21,  52,    16.872,     6.927,     0.000,     0.000,     0.000,     0.000,   1,    1,  0,     0.000,     0.000,   0
   462,'1 ',   0,  21,  52,    27.630,    11.790,     0.000,     0.000,     0.000,     0.000,   1,    1,  0,     0.000,     0.000,   0
   463,'1 ',   1,  21,  52,     6.766,     5.187,     0.000,     0.000,     0.000,     0.000,   1,    1,  0,     0.000,     0.000,   0
   463,'2 ',   0,  21,  52,    15.000,     5.000,     0.000,     0.000,     0.000,     0.000,   1,    1,  0,     0.000,     0.000,   0
   467,'1 ',   1,  21,  52,     5.105,     1.680,     0.000,     0.000,     0.000,     0.000,   1,    1,  0,     0.000,     0.000,   0
   472,'1 ',   1,  21,  52,     0.000,     0.000,     0.000,     0.000,     0.000,     0.000,   1,    1,  0,     0.000,     0.000,   0
   472,'2 ',   0,  21,  52,     0.000,     0.000,     0.000,     0.000,     0.000,     0.000,   1,    1,  0,     0.000,     0.000,   0
   480,'1 ',   1,  21,  52,     3.650,     1.767,     0.000,     0.000,     0.000,     0.000,   1,    1,  0,     0.000,     0.000,   0
   520,'1 ',   1,  21,  51,     9.628,     3.209,     0.000,     0.000,     0.000,     0.000,   1,    1,  0,     0.000,     0.000,   0
   522,'1 ',   1,  21,  51,     8.860,     5.477,     0.000,     0.000,     0.000,     0.000,   1,    1,  0,     0.000,     0.000,   0
   524,'1 ',   1,  21,  51,     2.394,     1.149,     0.000,     0.000,     0.000,     0.000,   1,    1,  0,     0.000,     0.000,   0
   535,'1 ',   1,  21,  51,    19.800,    11.800,     0.000,     0.000,     0.000,     0.000,   2,    0,  0,     0.000,     0.000,   0
   556,'2 ',   1,  21,  52,     3.745,     1.813,     0.000,     0.000,     0.000,     0.000,   1,    1,  0,     0.000,     0.000,   0
   721,'1 ',   1,  21,  52,     6.696,     2.195,     0.000,     0.000,     0.000,     0.000,   1,    1,  0,     0.000,     0.000,   0
0 / END OF LOAD DATA, BEGIN FIXED SHUNT DATA
@!   I,'ID',STATUS,  GL,        BL
0 / END OF FIXED SHUNT DATA, BEGIN GENERATOR DATA
@!   I,'ID',      PG,        QG,        QT,        QB,     VS,    IREG,     MBASE,     ZR,         ZX,         RT,         XT,     GTAP,STAT, RMPCT,      PT,        PB,    O1,    F1,  O2,    F2,  O3,    F3,  O4,    F4,WMOD, WPF,NREG
    11,'1 ',  -750.207,   327.884,  9999.000, -9999.000,1.00000,    11,   100.000, 0.00000E+0, 1.00000E+0, 0.00000E+0, 0.00000E+0,1.00000,1,  100.0,  9999.000, -9999.000,  10,1.0000
   102,'1 ',   110.000,    -6.218,    45.000,   -47.000,1.04000,   102,   140.000, 0.00000E+0, 2.20000E-1, 0.00000E+0, 0.00000E+0,1.00000,1,  100.0,   133.000,     0.000,   6,1.0000
   104,'1 ',   110.000,    -6.218,    45.000,   -47.000,1.04000,   104,   140.000, 0.00000E+0, 2.20000E-1, 0.00000E+0, 0.00000E+0,1.00000,1,  100.0,   133.000,     0.000,   6,1.0000
   106,'1 ',   110.000,    -6.218,    45.000,   -47.000,1.04000,   106,   140.000, 0.00000E+0, 2.20000E-1, 0.00000E+0, 0.00000E+0,1.00000,1,  100.0,   133.000,     0.000,   6,1.0000
   108,'1 ',   110.000,    -6.218,    45.000,   -47.000,1.04000,   108,   140.000, 0.00000E+0, 2.20000E-1, 0.00000E+0, 0.00000E+0,1.00000,1,  100.0,   133.000,     0.000,   6,1.0000
   242,'1 ',    -0.440,    -0.225,    -0.225,    -0.225,1.00000,   242,     0.543, 0.00000E+0, 1.57330E-1, 0.00000E+0, 0.00000E+0,1.00000,0,  100.0,  9999.000, -9999.000,   1,1.0000
   242,'2 ',    -0.659,    -0.338,    -0.338,    -0.338,1.00000,   242,     0.815, 0.00000E+0, 1.57330E-1, 0.00000E+0, 0.00000E+0,1.00000,0,  100.0,  9999.000, -9999.000,   1,1.0000
   242,'3 ',    -0.879,    -0.450,    -0.450,    -0.450,1.00000,   242,     1.087, 0.00000E+0, 1.57330E-1, 0.00000E+0, 0.00000E+0,1.00000,0,  100.0,  9999.000, -9999.000,   1,1.0000
   242,'4 ',   -11.962,    -3.730,    -3.730,    -3.730,1.00000,   242,    12.190, 0.00000E+0, 1.57330E-1, 0.00000E+0, 0.00000E+0,1.00000,0,  100.0,  9999.000, -9999.000,   1,1.0000
   251,'1 ',    10.000,     1.272,    15.000,    -6.000,1.04000,   251,    29.200, 0.00000E+0, 2.10000E-1, 0.00000E+0, 0.00000E+0,1.00000,1,  100.0,    23.400,     0.000,   6,1.0000
   406,'1 ',    25.500,   -10.000,    15.000,   -10.000,1.05000,   406,    32.250, 0.00000E+0, 1.50000E-1, 0.00000E+0, 0.00000E+0,1.00000,0,  100.0,  9999.000, -9999.000,   4,1.0000
   406,'2 ',    25.000,     1.279,    10.000,    -5.000,1.05000,   406,    22.000, 0.00000E+0, 1.52000E-1, 0.00000E+0, 0.00000E+0,1.00000,0,  100.0,  9999.000, -9999.000,   4,1.0000
   409,'1 ',    11.500,    -0.202,    12.000,    -7.000,1.03000,   409,    22.500, 0.00000E+0, 1.50000E-1, 0.00000E+0, 0.00000E+0,1.00000,0,  100.0,  9999.000, -9999.000,   4,1.0000
   410,'1 ',    -0.681,    -0.288,    -0.288,    -0.288,1.00000,   410,     0.814, 0.00000E+0, 1.57330E-1, 0.00000E+0, 0.00000E+0,1.00000,0,  100.0,  9999.000, -9999.000,   1,1.0000
   410,'2 ',    -1.022,    -0.432,    -0.432,    -0.432,1.00000,   410,     1.220, 0.00000E+0, 1.57330E-1, 0.00000E+0, 0.00000E+0,1.00000,0,  100.0,  9999.000, -9999.000,   1,1.0000
   410,'3 ',    -1.362,    -0.576,    -0.576,    -0.576,1.00000,   410,     1.627, 0.00000E+0, 1.57330E-1, 0.00000E+0, 0.00000E+0,1.00000,0,  100.0,  9999.000, -9999.000,   1,1.0000
   410,'4 ',   -19.073,    -8.800,    -8.800,    -8.800,1.00000,   410,    28.000, 0.00000E+0, 1.57330E-1, 0.00000E+0, 0.00000E+0,1.00000,0,  100.0,  9999.000, -9999.000,   1,1.0000
   420,'1 ',    -1.004,    -0.428,    -0.428,    -0.428,1.02000,   420,     1.201, 0.00000E+0, 1.57330E-1, 0.00000E+0, 0.00000E+0,1.00000,0,  100.0,  9999.000, -9999.000,   1,1.0000
   420,'2 ',    -1.506,    -0.642,    -0.642,    -0.642,1.02000,   420,     1.801, 0.00000E+0, 1.57330E-1, 0.00000E+0, 0.00000E+0,1.00000,0,  100.0,  9999.000, -9999.000,   1,1.0000
   420,'3 ',    -2.008,    -0.856,    -0.856,    -0.856,1.02000,   420,     2.402, 0.00000E+0, 1.57330E-1, 0.00000E+0, 0.00000E+0,1.00000,0,  100.0,  9999.000, -9999.000,   1,1.0000
   420,'4 ',   -33.295,   -10.000,   -10.000,   -10.000,1.02000,   420,    34.730, 0.00000E+0, 1.57330E-1, 0.00000E+0, 0.00000E+0,1.00000,0,  100.0,  9999.000, -9999.000,   1,1.0000
   422,'1 ',    16.000,     2.292,    13.000,    -7.000,0.98000,   422,    26.150, 0.00000E+0, 1.70000E-1, 0.00000E+0, 0.00000E+0,1.00000,0,  100.0,    20.500,     0.000,   4,1.0000
   437,'1 ',    20.000,     4.928,    15.000,    -5.000,1.05000,   437,    30.400, 0.00000E+0, 2.01000E-1, 0.00000E+0, 0.00000E+0,1.00000,0,  100.0,    25.000,     0.000,   8,1.0000
   437,'2 ',    20.000,     4.614,    15.000,    -5.000,1.05000,   437,    30.400, 0.00000E+0, 2.01000E-1, 0.00000E+0, 0.00000E+0,1.00000,0,  100.0,    25.000,     0.000,   8,1.0000
   438,'2 ',    20.000,     4.441,    15.000,    -5.000,1.05000,   438,    28.000, 0.00000E+0, 1.86000E-1, 0.00000E+0, 0.00000E+0,1.00000,0,  100.0,    22.600,     0.000,   8,1.0000
   440,'1 ',    -0.434,    -0.325,    -0.325,    -0.325,1.00000,   440,     0.596, 0.00000E+0, 1.57330E-1, 0.00000E+0, 0.00000E+0,1.00000,0,  100.0,  9999.000, -9999.000,   1,1.0000
   440,'2 ',    -0.650,    -0.488,    -0.488,    -0.488,1.00000,   440,     0.894, 0.00000E+0, 1.57330E-1, 0.00000E+0, 0.00000E+0,1.00000,0,  100.0,  9999.000, -9999.000,   1,1.0000
   440,'3 ',    -0.867,    -0.650,    -0.650,    -0.650,1.00000,   440,     1.192, 0.00000E+0, 1.57330E-1, 0.00000E+0, 0.00000E+0,1.00000,0,  100.0,  9999.000, -9999.000,   1,1.0000
   440,'4 ',   -12.238,    -4.000,    -4.000,    -4.000,1.00000,   440,    20.700, 0.00000E+0, 1.57330E-1, 0.00000E+0, 0.00000E+0,1.00000,0,  100.0,  9999.000, -9999.000,   1,1.0000
   442,'1 ',    -0.138,    -0.055,    -0.055,    -0.055,1.00000,   442,     0.164, 0.00000E+0, 1.57330E-1, 0.00000E+0, 0.00000E+0,1.00000,0,  100.0,  9999.000, -9999.000,   1,1.0000
   442,'2 ',    -0.208,    -0.082,    -0.082,    -0.082,1.00000,   442,     0.246, 0.00000E+0, 1.57330E-1, 0.00000E+0, 0.00000E+0,1.00000,0,  100.0,  9999.000, -9999.000,   1,1.0000
   442,'3 ',    -0.277,    -0.110,    -0.110,    -0.110,1.00000,   442,     0.327, 0.00000E+0, 1.57330E-1, 0.00000E+0, 0.00000E+0,1.00000,0,  100.0,  9999.000, -9999.000,   1,1.0000
   442,'4 ',    -6.064,    -3.000,    -3.000,    -3.000,1.00000,   442,     6.320, 0.00000E+0, 1.57330E-1, 0.00000E+0, 0.00000E+0,1.00000,0,  100.0,  9999.000, -9999.000,   1,1.0000
   444,'1 ',    -0.444,    -0.240,    -0.240,    -0.240,1.00000,   444,     0.555, 0.00000E+0, 1.57330E-1, 0.00000E+0, 0.00000E+0,1.00000,0,  100.0,  9999.000, -9999.000,   1,1.0000
   444,'2 ',    -0.665,    -0.359,    -0.359,    -0.359,1.00000,   444,     0.832, 0.00000E+0, 1.57330E-1, 0.00000E+0, 0.00000E+0,1.00000,0,  100.0,  9999.000, -9999.000,   1,1.0000
   444,'3 ',    -0.887,    -0.479,    -0.479,    -0.479,1.00000,   444,     1.109, 0.00000E+0, 1.57330E-1, 0.00000E+0, 0.00000E+0,1.00000,0,  100.0,  9999.000, -9999.000,   1,1.0000
   444,'4 ',   -14.112,    -5.900,    -5.900,    -5.900,1.00000,   444,    13.100, 0.00000E+0, 1.57330E-1, 0.00000E+0, 0.00000E+0,1.00000,0,  100.0,  9999.000, -9999.000,   1,1.0000
   445,'1 ',    -0.320,    -0.240,    -0.240,    -0.240,1.01000,   445,     0.440, 0.00000E+0, 1.57330E-1, 0.00000E+0, 0.00000E+0,1.00000,0,  100.0,  9999.000, -9999.000,   1,1.0000
   445,'2 ',    -0.480,    -0.360,    -0.360,    -0.360,1.01000,   445,     0.660, 0.00000E+0, 1.57330E-1, 0.00000E+0, 0.00000E+0,1.00000,0,  100.0,  9999.000, -9999.000,   1,1.0000
   445,'3 ',    -0.640,    -0.480,    -0.480,    -0.480,1.01000,   445,     0.880, 0.00000E+0, 1.57330E-1, 0.00000E+0, 0.00000E+0,1.00000,0,  100.0,  9999.000, -9999.000,   1,1.0000
   445,'4 ',    -8.489,    -2.800,    -2.800,    -2.800,1.01000,   445,     9.020, 0.00000E+0, 1.57330E-1, 0.00000E+0, 0.00000E+0,1.00000,0,  100.0,  9999.000, -9999.000,   1,1.0000
   448,'1 ',    -0.740,    -0.315,    -0.315,    -0.315,1.00000,   448,     0.885, 0.00000E+0, 1.57330E-1, 0.00000E+0, 0.00000E+0,1.00000,0,  100.0,  9999.000, -9999.000,   1,1.0000
   448,'2 ',    -1.110,    -0.473,    -0.473,    -0.473,1.00000,   448,     1.327, 0.00000E+0, 1.57330E-1, 0.00000E+0, 0.00000E+0,1.00000,0,  100.0,  9999.000, -9999.000,   1,1.0000
   448,'3 ',   -19.404,    -2.000,    -2.000,    -2.000,1.00000,   448,    20.000, 0.00000E+0, 1.57330E-1, 0.00000E+0, 0.00000E+0,1.00000,0,  100.0,  9999.000, -9999.000,   1,1.0000
   448,'4 ',    -8.820,    -1.500,    -1.500,    -1.500,1.00000,   448,    31.500, 0.00000E+0, 1.57330E-1, 0.00000E+0, 0.00000E+0,1.00000,0,  100.0,  9999.000, -9999.000,   1,1.0000
   450,'1 ',    -0.195,    -0.082,    -0.082,    -0.082,1.00000,   450,     0.232, 0.00000E+0, 1.57330E-1, 0.00000E+0, 0.00000E+0,1.00000,0,  100.0,  9999.000, -9999.000,   1,1.0000
   450,'2 ',    -0.292,    -0.122,    -0.122,    -0.122,1.00000,   450,     0.348, 0.00000E+0, 1.57330E-1, 0.00000E+0, 0.00000E+0,1.00000,0,  100.0,  9999.000, -9999.000,   1,1.0000
   450,'3 ',    -0.400,    -0.200,    -0.200,    -0.200,1.00000,   450,     0.464, 0.00000E+0, 1.57330E-1, 0.00000E+0, 0.00000E+0,1.00000,0,  100.0,  9999.000, -9999.000,   1,1.0000
   450,'4 ',    -5.071,    -2.100,    -2.100,    -2.100,1.00000,   450,     5.750, 0.00000E+0, 1.57330E-1, 0.00000E+0, 0.00000E+0,1.00000,0,  100.0,  9999.000, -9999.000,   1,1.0000
   453,'1 ',     3.150,     1.381,     2.520,    -2.079,1.03000,   453,     6.300, 0.00000E+0, 9.99900E+3, 0.00000E+0, 0.00000E+0,1.00000,1,  100.0,     6.300,     0.000,  11,1.0000
   459,'1 ',    -0.322,    -0.127,    -0.127,    -0.127,1.00000,   459,     0.380, 0.00000E+0, 1.57330E-1, 0.00000E+0, 0.00000E+0,1.00000,0,  100.0,  9999.000, -9999.000,   1,1.0000
   459,'2 ',    -0.482,    -0.191,    -0.191,    -0.191,1.00000,   459,     0.571, 0.00000E+0, 1.57330E-1, 0.00000E+0, 0.00000E+0,1.00000,0,  100.0,  9999.000, -9999.000,   1,1.0000
   459,'3 ',    -0.643,    -0.254,    -0.254,    -0.254,1.00000,   459,     0.761, 0.00000E+0, 1.57330E-1, 0.00000E+0, 0.00000E+0,1.00000,0,  100.0,  9999.000, -9999.000,   1,1.0000
   459,'4 ',    -5.843,    -1.800,    -1.800,    -1.800,1.00000,   459,     7.797, 0.00000E+0, 1.57330E-1, 0.00000E+0, 0.00000E+0,1.00000,0,  100.0,  9999.000, -9999.000,   1,1.0000
   463,'1 ',     1.350,     0.729,     0.729,    -0.729,1.00000,   463,     1.688, 0.00000E+0, 1.57330E-1, 0.00000E+0, 0.00000E+0,1.00000,0,  100.0,  9999.000, -9999.000,   1,1.0000
   463,'2 ',     2.025,     1.093,     1.093,    -1.093,1.00000,   463,     2.531, 0.00000E+0, 1.57330E-1, 0.00000E+0, 0.00000E+0,1.00000,0,  100.0,  9999.000, -9999.000,   1,1.0000
   463,'3 ',     2.700,     1.458,     1.458,    -1.458,1.00000,   463,     3.375, 0.00000E+0, 1.57330E-1, 0.00000E+0, 0.00000E+0,1.00000,0,  100.0,  9999.000, -9999.000,   1,1.0000
   463,'4 ',   -15.986,    -7.000,    -7.000,    -7.000,1.00000,   463,    34.595, 0.00000E+0, 1.57330E-1, 0.00000E+0, 0.00000E+0,1.00000,0,  100.0,  9999.000, -9999.000,   1,1.0000
   464,'1 ',    15.000,     8.909,    10.000,    -5.000,1.00000,   464,    21.000, 0.00000E+0, 1.60000E-1, 0.00000E+0, 0.00000E+0,1.00000,0,  100.0,    15.000,     0.000,   4,1.0000
   466,'1 ',    15.000,     3.842,    10.000,    -5.000,1.00000,   466,    22.500, 0.00000E+0, 1.60000E-1, 0.00000E+0, 0.00000E+0,1.00000,0,  100.0,    15.000,     0.000,   4,1.0000
   468,'1 ',    15.000,     0.799,    15.000,    -5.000,1.02000,   468,    22.000, 0.00000E+0, 1.70000E-1, 0.00000E+0, 0.00000E+0,1.00000,0,  100.0,    15.000,     0.000,   4,1.0000
   478,'1 ',    10.000,    -2.284,    10.500,    -4.750,1.00000,   478,    15.750, 0.00000E+0, 2.10000E-1, 0.00000E+0, 0.00000E+0,1.00000,1,  100.0,    10.800,     0.000,   4,1.0000
   491,'1 ',    30.000,    13.532,    30.000,   -12.000,1.03000,   491,    45.400, 0.00000E+0, 2.04000E-1, 0.00000E+0, 0.00000E+0,1.00000,1,  100.0,    39.300,     0.000,   8,1.0000
   492,'2 ',    30.000,    10.404,    30.000,   -12.000,1.03000,   492,    45.400, 0.00000E+0, 2.04000E-1, 0.00000E+0, 0.00000E+0,1.00000,0,  100.0,    39.300,     0.000,   8,1.0000
   493,'1 ',    20.000,    26.255,    45.000, -9999.000,1.03000,   493,    84.200, 0.00000E+0, 1.92000E-1, 0.00000E+0, 0.00000E+0,1.00000,1,  100.0,    67.000,     0.000,   8,1.0000
   536,'1 ',     8.500,     2.501,     8.820,    -5.900,1.00000,   536,    14.700, 0.00000E+0, 1.48000E-1, 0.00000E+0, 0.00000E+0,1.00000,1,  100.0,    11.760,     0.000,  10,1.0000
   536,'3 ',     8.500,     2.501,     8.820,    -5.900,1.00000,   536,    14.700, 0.00000E+0, 1.48000E-1, 0.00000E+0, 0.00000E+0,1.00000,1,  100.0,    11.760,     0.000,  10,1.0000
   536,'5 ',     8.500,     0.000,     8.820,    -5.900,1.00000,   536,    14.700, 0.00000E+0, 1.48000E-1, 0.00000E+0, 0.00000E+0,1.00000,0,  100.0,    11.760,     0.000,  10,1.0000
   601,'3 ',    28.830,   -10.909,    29.295,   -32.500,1.00000,   601,    57.660, 1.10000E-2, 4.65500E-1, 0.00000E+0, 0.00000E+0,1.00000,1,  100.0,    57.660,     0.000,  11,1.0000,   0,   1.0,   0,   1.0,   0,   1.0, 1, 1.0000
   602,'1 ',    25.200,    -5.717,    26.852,   -20.720,1.00000,   602,    50.400, 0.00000E+0, 9.99990E+4, 0.00000E+0, 0.00000E+0,1.00000,1,  100.0,    50.400,     5.400,  11,1.0000,   0,   1.0,   0,   1.0,   0,   1.0, 1, 1.0000
   604,'1 ',    61.335,    -4.045,    59.450,   -59.450,1.03000,   604,   136.300, 0.00000E+0, 1.00000E+8, 0.00000E+0, 0.00000E+0,1.00000,1,  100.0,   122.670,     0.000,  11,1.0000,   0,   1.0,   0,   1.0,   0,   1.0, 1, 1.0000
   605,'1 ',    25.200,    -1.065,    24.800,   -24.800,1.00000,   605,    50.400, 0.00000E+0, 9.99900E+3, 0.00000E+0, 0.00000E+0,1.00000,1,  100.0,    50.400,     0.000,  11,1.0000,   0,   1.0,   0,   1.0,   0,   1.0, 1, 1.0000
   607,'1 ',     8.400,     2.045,     6.300,     0.000,1.00000,   607,    10.500, 0.00000E+0, 2.38000E-1, 0.00000E+0, 0.00000E+0,1.00000,1,  100.0,     8.400,     0.000,   1,1.0000
   608,'4 ',    19.710,   -10.424,    20.655,   -22.500,1.00000,   608,    39.420, 1.09000E-2, 4.62400E-1, 0.00000E+0, 0.00000E+0,1.00000,1,  100.0,    39.420,     0.000,  11,1.0000,   0,   1.0,   0,   1.0,   0,   1.0, 1, 1.0000
   609,'2 ',    14.400,     0.000,    13.700,    -9.900,1.00000,   609,    28.800, 0.00000E+0, 9.99900E+3, 0.00000E+0, 0.00000E+0,1.00000,0,  100.0,    28.800,     0.000,  11,1.0000,   0,   1.0,   0,   1.0,   0,   1.0, 1, 1.0000
   618,'2 ',    16.980,     3.245,    12.960,     0.000,1.00000,   618,    21.600, 0.00000E+0, 1.00000E-1, 0.00000E+0, 0.00000E+0,1.00000,1,  100.0,    16.980,     0.000,   7,1.0000
   619,'2 ',     8.500,     5.002,     8.820,    -5.900,1.00000,   619,    14.700, 0.00000E+0, 1.48000E-1, 0.00000E+0, 0.00000E+0,1.00000,1,  100.0,    11.760,     0.000,  10,1.0000
   619,'4 ',     8.500,     0.000,     8.820,    -5.900,1.00000,   619,    14.700, 0.00000E+0, 1.48000E-1, 0.00000E+0, 0.00000E+0,1.00000,0,  100.0,    11.760,     0.000,  10,1.0000
   620,'2 ',     4.000,    -0.594,     3.420,    -2.380,1.00000,   620,     6.100, 0.00000E+0, 2.68000E-1, 0.00000E+0, 0.00000E+0,1.00000,1,  100.0,     5.185,     0.000,   6,1.0000
   650,'1 ',    12.075,    -0.878,    12.341,    -9.366,1.02000,   650,    25.200, 0.00000E+0, 9.99900E+3, 0.00000E+0, 0.00000E+0,1.00000,1,  100.0,    24.150,     0.000,  11,1.0000,   0,   1.0,   0,   1.0,   0,   1.0, 1, 1.0000
   651,'1 ',    14.175,    -6.125,    14.432,   -11.360,1.00000,   651,    28.800, 0.00000E+0, 8.21900E-1, 0.00000E+0, 0.00000E+0,1.00000,1,  100.0,    28.350,     0.000,  11,1.0000,   0,   1.0,   0,   1.0,   0,   1.0, 1, 1.0000
   652,'1 ',    48.600,   -11.048,    51.030,   -37.910,1.00000,   652,    97.200, 0.00000E+0, 9.99990E+4, 0.00000E+0, 0.00000E+0,1.00000,1,  100.0,    97.200,     0.000,  11,1.0000,   0,   1.0,   0,   1.0,   0,   1.0, 1, 1.0000
   654,'1 ',    50.400,   -13.298,    50.512,   -39.760,1.00000,   654,   100.800, 0.00000E+0, 5.19000E-1, 0.00000E+0, 0.00000E+0,1.00000,1,  100.0,   100.800,     0.000,  11,1.0000,   0,   1.0,   0,   1.0,   0,   1.0, 1, 1.0000
   658,'1 ',    12.600,    -3.594,    12.628,    -9.940,1.00000,   658,    25.200, 0.00000E+0, 5.19000E-1, 0.00000E+0, 0.00000E+0,1.00000,1,  100.0,    25.200,     0.000,  11,1.0000,   0,   1.0,   0,   1.0,   0,   1.0, 1, 1.0000
   659,'1 ',    14.700,     7.082,    18.700,   -18.700,1.00000,   659,    29.400, 0.00000E+0, 9.99900E+3, 0.00000E+0, 0.00000E+0,1.00000,1,  100.0,    29.400,     0.000,  11,1.0000
   661,'1 ',    30.000,     7.732,    25.000,   -20.000,1.05000,   661,    45.000, 0.00000E+0, 2.04000E-1, 0.00000E+0, 0.00000E+0,1.00000,1,  100.0,    40.000,     0.000,   4,1.0000
   662,'2 ',    30.000,     7.732,    25.000,   -20.000,1.05000,   662,    45.000, 0.00000E+0, 2.04000E-1, 0.00000E+0, 0.00000E+0,1.00000,1,  100.0,    40.000,     0.000,   4,1.0000
   663,'1 ',     5.000,    -1.321,     4.680,    -3.150,1.00000,   663,     9.000, 0.00000E+0, 1.29000E-1, 0.00000E+0, 0.00000E+0,1.00000,1,  100.0,     7.200,     0.000,   6,1.0000
   664,'1 ',    12.600,     6.060,    11.900,   -11.900,0.98000,   664,    25.200, 0.00000E+0, 9.99900E+3, 0.00000E+0, 0.00000E+0,1.00000,1,  100.0,    25.200,     0.000,  11,1.0000
   675,'1 ',    40.850,     3.500,     3.500,     3.500,1.00000,   675,    86.050, 0.00000E+0, 8.00000E-1, 0.00000E+0, 0.00000E+0,1.00000,1,  100.0,    81.700,     0.000,  11,1.0000,   0,   1.0,   0,   1.0,   0,   1.0, 1, 1.0000
   676,'3 ',    12.480,     4.980,     4.980,     4.980,1.00000,   676,    26.210, 0.00000E+0, 8.00000E-1, 0.00000E+0, 0.00000E+0,1.00000,1,  100.0,    24.960,     0.000,  11,1.0000,   0,   1.0,   0,   1.0,   0,   1.0, 1, 1.0000
   679,'1 ',    35.500,   -13.611,    27.000,   -27.000,1.00000,   679,    72.300, 7.42400E-1, 3.71200E-1, 0.00000E+0, 0.00000E+0,1.00000,1,  100.0,    71.000,     0.000,  11,1.0000,   0,   1.0,   0,   1.0,   0,   1.0, 1, 1.0000
   680,'1 ',    75.000,   -35.773,    57.080,   -57.080,1.00000,   680,   152.800, 7.42400E-1, 3.71200E-1, 0.00000E+0, 0.00000E+0,1.00000,1,  100.0,   150.000,     0.000,  11,1.0000,   0,   1.0,   0,   1.0,   0,   1.0, 1, 1.0000
   682,'1 ',    21.900,   -10.383,    22.950,   -25.000,1.00000,   682,    43.800, 1.09000E-2, 4.62400E-1, 0.00000E+0, 0.00000E+0,1.00000,1,  100.0,    43.800,     0.000,  11,1.0000,   0,   1.0,   0,   1.0,   0,   1.0, 1, 1.0000
   684,'1 ',    26.250,    -9.324,    24.800,   -24.800,1.00000,   684,    52.500, 0.00000E+0, 9.99900E+3, 0.00000E+0, 0.00000E+0,1.00000,1,  100.0,    52.500,     0.000,  11,1.0000,   0,   1.0,   0,   1.0,   0,   1.0, 1, 1.0000
   685,'3 ',    26.250,    -8.063,    24.800,   -24.800,1.00000,   685,    52.500, 0.00000E+0, 9.99900E+3, 0.00000E+0, 0.00000E+0,1.00000,1,  100.0,    52.500,     0.000,  11,1.0000,   0,   1.0,   0,   1.0,   0,   1.0, 1, 1.0000
   686,'2 ',    26.250,    -8.163,    24.800,   -24.800,1.00000,   686,    52.500, 0.00000E+0, 9.99900E+3, 0.00000E+0, 0.00000E+0,1.00000,1,  100.0,    52.500,     0.000,  11,1.0000,   0,   1.0,   0,   1.0,   0,   1.0, 1, 1.0000
   687,'4 ',    25.500,   -12.872,    28.900,   -28.900,1.00000,   687,    51.000, 0.00000E+0, 1.40000E-1, 0.00000E+0, 0.00000E+0,1.00000,1,  100.0,    51.000,     0.000,  11,1.0000,   0,   1.0,   0,   1.0,   0,   1.0, 1, 1.0000
   688,'2 ',    25.200,    -0.797,    24.800,   -24.800,1.00000,   688,    50.400, 0.00000E+0, 9.99900E+3, 0.00000E+0, 0.00000E+0,1.00000,1,  100.0,    50.400,     0.000,  11,1.0000,   0,   1.0,   0,   1.0,   0,   1.0, 1, 1.0000
   691,'1 ',    25.200,     6.463,    15.000,   -15.000,1.02000,   691,    50.400, 0.00000E+0, 9.99900E+3, 0.00000E+0, 0.00000E+0,1.00000,1,  100.0,    50.400,     0.000,  11,1.0000,   0,   1.0,   0,   1.0,   0,   1.0, 1, 1.0000
   692,'2 ',    25.200,     6.468,    15.000,   -15.000,1.02000,   692,    50.400, 0.00000E+0, 9.99900E+3, 0.00000E+0, 0.00000E+0,1.00000,1,  100.0,    50.400,     0.000,  11,1.0000,   0,   1.0,   0,   1.0,   0,   1.0, 1, 1.0000
0 / END OF GENERATOR DATA, BEGIN BRANCH DATA
@!   I,     J,'CKT',     R,          X,         B,                    'N A M E'                 ,   RATE1,   RATE2,   RATE3,   RATE4,   RATE5,   RATE6,   RATE7,   RATE8,   RATE9,  RATE10,  RATE11,  RATE12,    GI,       BI,       GJ,       BJ,STAT,MET,  LEN,  O1,  F1,    O2,  F2,    O3,  F3,    O4,  F4
    10,    11,'1 ', 0.00000E+00,-2.36900E-02,   0.00000,'                                        ', 1262.70, 1262.70, 1262.70,    0.00,    0.00,    0.00,    0.00,    0.00,    0.00,    0.00,    0.00,    0.00,  0.00000,  0.00000,  0.00000,  0.00000,1,1,   0.00,  10,1.0000
    10,    12,'1 ', 4.52900E-03, 5.40600E-02,   6.45816,'                                        ',  866.00,  866.00, 1593.00,    0.00,    0.00,    0.00,    0.00,    0.00,    0.00,    0.00,    0.00,    0.00,  0.00000, -2.40000,  0.00000, -2.40000,1,1, 552.30,  10,1.0000
    12,    15,'1 ', 3.24500E-03, 3.83750E-02,   4.57445,'                                        ',  866.00,  866.00, 2425.00,    0.00,    0.00,    0.00,    0.00,    0.00,    0.00,    0.00,    0.00,    0.00,  0.00000, -1.50000,  0.00000, -1.50000,1,1, 391.90,  10,1.0000
    15,    19,'1 ', 1.38000E-03, 1.65400E-02,   1.99390,'                                        ',  866.00,  866.00, 2425.00,    0.00,    0.00,    0.00,    0.00,    0.00,    0.00,    0.00,    0.00,    0.00,  0.00000, -0.80000,  0.00000, -0.80000,1,1, 170.55,  10,1.0000
   100,   200,'1 ', 2.33300E-02, 1.68180E-01,   2.08075,'                                        ',  333.80,  333.80,  333.80,    0.00,    0.00,    0.00,    0.00,    0.00,    0.00,    0.00,    0.00,    0.00,  0.00000, -0.50000,  0.00000, -0.50000,1,1, 550.00,   1,1.0000
   100,   200,'2 ', 2.33300E-02, 1.68180E-01,   2.08075,'                                        ',  333.80,  333.80,  333.80,    0.00,    0.00,    0.00,    0.00,    0.00,    0.00,    0.00,    0.00,    0.00,  0.00000, -0.50000,  0.00000, -0.50000,1,1, 550.00,   1,1.0000
   115,   117,'1 ', 1.18240E-02, 8.64030E-02,   0.28179,'                                        ',  228.60,  228.60,  563.90,    0.00,    0.00,    0.00,    0.00,    0.00,    0.00,    0.00,    0.00,    0.00,  0.00000,  0.00000,  0.00000,  0.00000,1,1, 142.00,   1,1.0000
   117,   118,'1 ', 1.01920E-02, 7.44770E-02,   0.22942,'                                        ',  152.40,  152.40,  563.90,    0.00,    0.00,    0.00,    0.00,    0.00,    0.00,    0.00,    0.00,    0.00,  0.00000,  0.00000,  0.00000,  0.00000,1,1, 122.40,   1,1.0000
   200,   210,'1 ', 2.30000E-04, 1.68000E-03,   0.02081,'                                        ',  285.79,  285.79,  285.79,    0.00,    0.00,    0.00,    0.00,    0.00,    0.00,    0.00,    0.00,    0.00,  0.00000,  0.00000,  0.00000,  0.00000,1,2, 550.00,   1,1.0000
   200,   211,'1 ', 2.30000E-04, 1.68000E-03,   0.02081,'                                        ',  285.79,  285.79,  285.79,    0.00,    0.00,    0.00,    0.00,    0.00,    0.00,    0.00,    0.00,    0.00,  0.00000,  0.00000,  0.00000,  0.00000,1,2, 550.00,   1,1.0000
   200,   213,'1 ', 2.30000E-04, 1.68000E-03,   0.02808,'                                        ',  285.80,  285.80,  285.80,    0.00,    0.00,    0.00,    0.00,    0.00,    0.00,    0.00,    0.00,    0.00,  0.00000,  0.00000,  0.00000,  0.00000,1,2, 550.00,   1,1.0000
   200,   224,'1 ', 2.00000E-05, 1.40000E-04,   0.00178,'                                        ',    0.00,    0.00,    0.00,    0.00,    0.00,    0.00,    0.00,    0.00,    0.00,    0.00,    0.00,    0.00,  0.00000,  0.00000,  0.00000,  0.00000,1,1, 550.00,   1,1.0000
   220,   230,'1 ', 3.17000E-03, 1.24300E-02,   0.00290,'                                        ',  114.32,  144.00,  169.00,    0.00,    0.00,    0.00,    0.00,    0.00,    0.00,    0.00,    0.00,    0.00,  0.00000,  0.00000,  0.00000,  0.00000,1,1,   5.70,   1,1.0000
   220,   300,'1 ', 6.76400E-02, 2.64980E-01,   0.06186,'                                        ',   68.59,   82.31,  169.00,    0.00,    0.00,    0.00,    0.00,    0.00,    0.00,    0.00,    0.00,    0.00,  0.00000,  0.00000,  0.00000,  0.00000,1,1, 121.50,   1,1.0000
   220,   494,'1 ', 8.07000E-03, 3.16200E-02,   0.00737,'                                        ',  169.20,  169.20,  169.20,    0.00,    0.00,    0.00,    0.00,    0.00,    0.00,    0.00,    0.00,    0.00,  0.00000,  0.00000,  0.00000,  0.00000,1,1,  14.50,   1,1.0000
   221,   223,'1 ', 2.15000E-02, 8.51000E-02,   0.02090,'                                        ',  169.20,  169.20,  169.20,    0.00,    0.00,    0.00,    0.00,    0.00,    0.00,    0.00,    0.00,    0.00,  0.00000,  0.00000,  0.00000,  0.00000,1,2,  39.30,  10,1.0000
   221,   246,'1 ', 6.30000E-03, 2.56000E-02,   0.00600,'                                        ',  169.20,  169.20,  169.20,    0.00,    0.00,    0.00,    0.00,    0.00,    0.00,    0.00,    0.00,    0.00,  0.00000,  0.00000,  0.00000,  0.00000,1,2,  12.90,   1,1.0000
   221,   246,'2 ', 6.30000E-03, 2.56000E-02,   0.00600,'                                        ',  169.20,  169.20,  169.20,    0.00,    0.00,    0.00,    0.00,    0.00,    0.00,    0.00,    0.00,    0.00,  0.00000,  0.00000,  0.00000,  0.00000,1,1,  12.90,  10,1.0000
   221,   272,'1 ', 7.60000E-03, 2.97000E-02,   0.00690,'                                        ',  169.20,  169.20,  169.20,    0.00,    0.00,    0.00,    0.00,    0.00,    0.00,    0.00,    0.00,    0.00,  0.00000,  0.00000,  0.00000,  0.00000,1,1,  13.60,  10,1.0000
   221,   275,'1 ', 2.36000E-02, 9.38000E-02,   0.02300,'                                        ',  137.20,  169.20,  169.20,    0.00,    0.00,    0.00,    0.00,    0.00,    0.00,    0.00,    0.00,    0.00,  0.00000,  0.00000,  0.00000,  0.00000,1,1,  43.30,   1,1.0000
   226,   273,'1 ', 1.84480E-02, 7.31910E-02,   0.01798,'                                        ',  169.20,  169.20,  169.20,    0.00,    0.00,    0.00,    0.00,    0.00,    0.00,    0.00,    0.00,    0.00,  0.00000,  0.00000,  0.00000,  0.00000,1,2,  33.80,  10,1.0000
   230,   240,'1 ', 4.30600E-02, 1.42330E-01,   0.03102,'                                        ',  114.00,  137.00,  146.00,    0.00,    0.00,    0.00,    0.00,    0.00,    0.00,    0.00,    0.00,    0.00,  0.00000,  0.00000,  0.00000,  0.00000,1,2,  62.00,   1,1.0000
   240,   243,'1 ', 1.12800E-02, 3.40700E-02,   0.00756,'                                        ',  114.00,  144.00,  146.00,    0.00,    0.00,    0.00,    0.00,    0.00,    0.00,    0.00,    0.00,    0.00,  0.00000,  0.00000,  0.00000,  0.00000,1,1,  21.80,   1,1.0000
   240,   250,'1 ', 7.78000E-02, 2.57100E-01,   0.05600,'                                        ',  144.00,  144.00,  146.30,    0.00,    0.00,    0.00,    0.00,    0.00,    0.00,    0.00,    0.00,    0.00,  0.00000,  0.00000,  0.00000,  0.00000,1,1, 112.00,   1,1.0000
   243,   258,'1 ', 4.06000E-03, 1.59200E-02,   0.00371,'                                        ',  137.00,  137.00,    0.00,    0.00,    0.00,    0.00,    0.00,    0.00,    0.00,    0.00,    0.00,    0.00,  0.00000,  0.00000,  0.00000,  0.00000,1,1,   7.30,   1,1.0000
   250,   402,'1 ', 6.75000E-02, 2.64300E-01,   0.06160,'                                        ',  144.00,  144.00,  169.20,    0.00,    0.00,    0.00,    0.00,    0.00,    0.00,    0.00,    0.00,    0.00,  0.00000,  0.00000,  0.00000,  0.00000,1,1, 121.20,   1,1.0000
   264,   266,'1 ', 2.54300E-02, 6.35700E-02,   0.01421,'                                        ',   34.00,   41.00,  122.00,    0.00,    0.00,    0.00,    0.00,    0.00,    0.00,    0.00,    0.00,    0.00,  0.00000,  0.00000,  0.00000,  0.00000,1,2,  28.40,   1,1.0000
   266,   271,'1 ', 1.45140E-01, 2.85420E-01,   0.05870,'                                        ',    0.00,    0.00,    0.00,    0.00,    0.00,    0.00,    0.00,    0.00,    0.00,    0.00,    0.00,    0.00,  0.00000,  0.00000,  0.00000,  0.00000,1,1, 128.00,   1,1.0000
   280,   281,'1 ', 2.44837E+00, 1.31596E+00,   0.00000,'                                        ',    0.00,    0.00,    0.00,    0.00,    0.00,    0.00,    0.00,    0.00,    0.00,    0.00,    0.00,    0.00,  0.00000,  0.00000,  0.00000,  0.00000,1,1,   6.00,   1,1.0000
   281,   282,'1 ', 1.82593E+00, 9.81400E-01,   0.00000,'                                        ',    0.00,    0.00,    0.00,    0.00,    0.00,    0.00,    0.00,    0.00,    0.00,    0.00,    0.00,    0.00,  0.00000,  0.00000,  0.00000,  0.00000,1,2,   4.50,   1,1.0000
...